Data/KPG193_ver1_5.m
function mpc = KPG193_ver1_5

mpc.version = '2';

%-----  Power Flow Data  -----%%
% system MVA base
mpc.baseMVA = 100;
    
% bus data
%	bus_i	type	Pd	Qd	Gs	Bs	area	Vm	Va	baseKV	zone	Vmax	Vmin
mpc.bus = [
	1	1	60.10005262	8.540729071	0	0	1	1.049290504	-1.546703865	154	1	1.1	0.9	;
	2	1	77.86682529	10.32257149	0	0	1	1.04984995	-2.252739336	345	1	1.05	0.95	;
	3	2	452.7959174	47.34332488	0	0	1	1.05000001	-1.923691938	345	1	1.05	0.95	;
	4	2	108.0675095	10.98065239	0	0	1	1.05000001	-2.524531316	345	1	1.05	0.95	;
	5	1	-176.4488215	12.39954598	0	0	1	1.051699039	-2.312919195	154	1	1.1	0.9	;
	6	1	97.37817019	10.55004308	0	0	1	1.047944445	-6.649832641	154	1	1.1	0.9	;
	7	2	703.2959193	71.18648273	0	0	1	1.04922907	-6.033329469	345	1	1.05	0.95	;
	8	2	1610.245306	162.4950267	0	0	1	1.05000001	-6.800375972	345	1	1.05	0.95	;
	9	1	409.2859112	41.13874854	0	0	1	1.047718105	-7.479595778	154	1	1.1	0.9	;
	10	2	897.5840085	90.38020729	0	0	1	1.048624101	-6.928108814	154	1	1.1	0.9	;
	11	1	737.3457448	74.86024455	0	0	1	1.047767097	-7.285874698	345	1	1.05	0.95	;
	12	1	410.7671418	41.07671418	0	0	1	1.047591485	-7.487830101	154	1	1.1	0.9	;
	13	1	442.7349719	44.27349719	0	0	1	1.047658199	-7.487200087	154	1	1.1	0.9	;
	14	1	474.8005237	47.48005237	0	0	1	1.04850982	-7.410628027	345	1	1.05	0.95	;
	15	1	140.4552505	14.04552505	0	0	1	1.04820491	-7.449357065	154	1	1.1	0.9	;
	16	1	605.0867533	60.50867533	0	0	1	1.048513096	-7.427783041	345	1	1.05	0.95	;
	17	1	652.4699575	65.24699575	0	0	1	1.048346734	-7.447391173	345	1	1.05	0.95	;
	18	1	681.2057126	68.12057126	0	0	1	1.048262346	-7.445522741	345	1	1.05	0.95	;
	19	2	639.4754826	64.13101151	0	0	1	1.048303167	-7.422881556	345	1	1.05	0.95	;
	20	2	297.2702231	33.11847198	0	0	1	1.052154229	-6.166403255	154	1	1.1	0.9	;
	21	2	986.2616311	99.96621723	0	0	1	1.047856974	-7.156976355	345	1	1.05	0.95	;
	22	1	807.2510276	80.72510276	0	0	1	1.047939612	-7.477589258	345	1	1.05	0.95	;
	23	1	471.2211565	47.23963703	0	0	1	1.048173182	-7.418799448	345	1	1.05	0.95	;
	24	1	769.0242171	77.28499942	0	0	1	1.046748591	-7.131049092	154	1	1.1	0.9	;
	25	1	623.0032328	62.49827955	0	0	1	1.04606513	-7.553700861	154	1	1.1	0.9	;
	26	2	735.8887031	73.76596499	0	0	1	1.047501222	-7.083628108	345	1	1.05	0.95	;
	27	2	14.11412764	4.201835317	0	0	1	1.05000001	-5.633508902	345	1	1.05	0.95	;
	28	1	161.0601776	16.72358385	0	0	1	1.05000001	-4.65075456	765	1	1.05	0.95	;
	29	1	812.0857387	81.33025956	0	0	1	1.046826598	-7.555390772	345	1	1.05	0.95	;
	30	1	630.2808766	63.19207526	0	0	1	1.046777476	-7.557949645	154	1	1.1	0.9	;
	31	1	511.8605733	51.39334699	0	0	1	1.046416195	-7.52326039	154	1	1.1	0.9	;
	32	1	210.6267658	21.18962598	0	0	1	1.048131588	-7.418909133	345	1	1.05	0.95	;
	33	1	608.7791716	61.10411514	0	0	1	1.047641475	-7.448817051	154	1	1.1	0.9	;
	34	1	1359.327175	136.6529705	0	0	1	1.048036088	-7.004878234	345	1	1.05	0.95	;
	35	1	826.3817733	83.25015326	0	0	1	1.040787294	-8.194718771	154	1	1.1	0.9	;
	36	2	957.9045079	96.03856314	0	0	1	1.047060464	-7.528993483	345	1	1.05	0.95	;
	37	2	1170.20909	117.7413975	0	0	1	1.048360324	-6.77757879	345	1	1.05	0.95	;
	38	1	471.3937061	47.68660988	0	0	1	1.043310361	-7.653129868	345	1	1.05	0.95	;
	39	2	916.915422	92.00089642	0	0	1	1.046858138	-7.587350631	154	1	1.1	0.9	;
	40	2	1382.771119	139.4576905	0	0	1	1.05000001	-5.524756056	345	1	1.05	0.95	;
	41	1	251.9831637	25.19831637	0	0	1	1.027357686	-8.2519162	154	1	1.1	0.9	;
	42	1	1537.856153	153.7856153	0	0	1	1.022109659	-11.06209495	154	1	1.1	0.9	;
	43	1	801.5363008	80.15461276	0	0	1	1.041612605	-8.147713817	154	1	1.1	0.9	;
	44	1	246.0878788	24.7299606	0	0	1	1.046956646	-6.61535708	345	1	1.05	0.95	;
	45	1	452.793401	45.2793401	0	0	1	1.043435618	-7.13460407	345	1	1.05	0.95	;
	46	1	1419.099955	142.4423266	0	0	1	1.043505864	-7.319258159	345	1	1.05	0.95	;
	47	1	3555.323884	360.7844974	0	0	1	1.039408233	-6.845721472	345	1	1.05	0.95	;
	48	2	251.6632473	25.16632473	0	0	1	1.058280207	-3.027493877	154	1	1.1	0.9	;
	49	2	512.8012856	51.48853131	0	0	1	1.065497187	0.874665079	154	1	1.1	0.9	;
	50	1	612.2594497	61.22889173	0	0	1	1.046202449	-5.302102446	765	1	1.05	0.95	;
	51	1	2452.98345	245.298345	0	0	1	1.044260906	-4.49293777	345	1	1.05	0.95	;
	52	1	544.6313288	56.45035194	0	0	2	1.029203076	-8.041046679	154	1	1.1	0.9	;
	53	2	1097.528284	117.1568882	0	0	2	1.05000001	1.55522016	765	1	1.05	0.95	;
	54	1	503.3746659	50.33746659	0	0	2	1.042049651	-5.491875476	345	1	1.05	0.95	;
	55	1	1465.234442	146.523605	0	0	2	1.038686773	-3.30154292	345	1	1.05	0.95	;
	56	1	203.5733773	20.35733773	0	0	2	1.031484967	-7.584339666	154	1	1.1	0.9	;
	57	1	2307.091557	230.7097987	0	0	2	1.037155598	-4.229259382	345	1	1.05	0.95	;
	58	2	1653.822773	172.7029891	0	0	2	1.047273823	3.505758344	345	1	1.05	0.95	;
	59	2	97.16254276	15.68196179	0	0	2	1.05000001	5.749440428	345	1	1.05	0.95	;
	60	1	228.3774702	22.83774702	0	0	2	1.044323383	-1.112492687	345	1	1.05	0.95	;
	61	1	1093.344079	109.3344818	0	0	2	1.038989499	-5.763797233	154	1	1.1	0.9	;
	62	1	1286.86855	128.6869419	0	0	2	1.043717547	-4.555329698	765	1	1.05	0.95	;
	63	1	152.2956846	17.82885824	0	0	2	1.047247651	-0.008799058	765	1	1.05	0.95	;
	64	2	649.6284931	64.96284931	0	0	2	1.037954785	-4.671945778	345	1	1.05	0.95	;
	65	2	-269.7152549	15.44922261	0	0	3	1.057455765	15.17423998	154	1	1.1	0.9	;
	66	1	-15.66335555	4.462870552	0	0	3	1.049474819	0.709934195	154	1	1.1	0.9	;
	67	1	-13.96465003	3.535921976	0	0	3	1.043114541	4.987519014	154	1	1.1	0.9	;
	68	2	54.21910188	5.582642303	0	0	3	1.05000001	14.40846305	345	1	1.05	0.95	;
	69	1	54.80045674	5.809010735	0	0	3	1.041631293	7.785101922	154	1	1.1	0.9	;
	70	2	319.9235828	32.03945279	0	0	3	1.056480261	-0.501126804	154	1	1.1	0.9	;
	71	2	344.8779293	36.13326117	0	0	3	1.05000001	11.68586495	345	1	1.05	0.95	;
	72	1	110.7055334	12.61521376	0	0	3	1.038611121	-0.17947837	154	1	1.1	0.9	;
	73	1	373.973287	40.96753811	0	0	3	1.044622978	6.461448327	345	1	1.05	0.95	;
	74	1	85.254901	11.65056469	0	0	3	1.027897978	-2.732503368	154	1	1.1	0.9	;
	75	1	219.2992124	24.17854607	0	0	3	1.045167453	6.183914083	345	1	1.05	0.95	;
	76	1	79.45965483	10.76344019	0	0	3	1.047679092	3.572178651	154	1	1.1	0.9	;
	77	1	423.547627	44.38772022	0	0	3	1.02394236	-4.919472477	154	1	1.1	0.9	;
	78	1	5.615591605	10.74299496	0	0	3	1.031213472	0.864739127	154	1	1.1	0.9	;
	79	2	152.2507274	19.58270797	0	0	3	1.05290634	2.736676223	154	1	1.1	0.9	;
	80	1	-65.09488722	5.196214548	0	0	3	1.05000001	3.49187213	765	1	1.05	0.95	;
	81	1	266.8111333	28.36257455	0	0	3	1.036050685	-0.825736669	345	1	1.05	0.95	;
	82	2	94.71194	12.33222564	0	0	3	1.047893854	5.807570065	765	1	1.05	0.95	;
	83	1	310.4992324	32.43091831	0	0	3	1.036399463	-1.391580834	154	1	1.1	0.9	;
	84	1	305.5490449	47.30716881	0	0	3	1.033013891	-6.335128628	345	1	1.05	0.95	;
	85	1	286.2382273	30.54430327	0	0	3	1.033145521	-1.142106727	154	1	1.1	0.9	;
	86	1	270.7548419	29.91110782	0	0	3	1.036266341	-1.271655333	345	1	1.05	0.95	;
	87	1	-294.4374855	6.842791164	0	0	3	1.035481637	-2.197335322	345	1	1.05	0.95	;
	88	1	-134.2263995	1.924085707	0	0	3	1.033846497	-3.352363783	154	1	1.1	0.9	;
	89	1	103.7873182	10.37905328	0	0	3	1.028170013	-4.602387985	154	1	1.1	0.9	;
	90	1	69.97536179	20.78621876	0	0	3	1.034410294	-2.416705568	154	1	1.1	0.9	;
	91	1	69.58236858	6.958236858	0	0	3	1.031146852	-6.454065835	154	1	1.1	0.9	;
	92	1	-235.9538469	3.531500143	0	0	3	1.03538399	-2.95586993	345	1	1.05	0.95	;
	93	1	93.03420672	13.76859512	0	0	3	1.024545169	-6.521311112	154	1	1.1	0.9	;
	94	1	29.67783133	5.089447046	0	0	3	1.030331406	-3.903507778	154	1	1.1	0.9	;
	95	1	33.40517761	7.820806855	0	0	3	1.031996663	-4.78062473	345	1	1.05	0.95	;
	96	1	202.3373784	20.23373784	0	0	4	1.038615526	-2.77115357	154	1	1.1	0.9	;
	97	1	62.95844436	6.295844436	0	0	4	1.044861308	0.252437144	345	1	1.05	0.95	;
	98	1	307.4775721	32.45888342	0	0	4	1.034830911	-5.0216208	154	1	1.1	0.9	;
	99	1	1041.42257	104.142257	0	0	4	1.023170756	-7.346256475	154	1	1.1	0.9	;
	100	2	224.2876806	24.40550286	0	0	4	1.05000001	2.899079723	345	1	1.05	0.95	;
	101	1	380.6209966	38.06209966	0	0	4	1.023851252	-7.186179515	154	1	1.1	0.9	;
	102	1	112.053477	11.2053477	0	0	4	1.038159199	-3.912200001	345	1	1.05	0.95	;
	103	1	117.4698087	11.74698087	0	0	4	1.043491219	-0.277226864	154	1	1.1	0.9	;
	104	1	248.1580483	24.81580483	0	0	4	1.039586872	-2.172513626	345	1	1.05	0.95	;
	105	1	166.3573554	16.63573554	0	0	4	1.035112178	-4.887371023	154	1	1.1	0.9	;
	106	2	172.6243721	19.68808733	0	0	4	1.051514972	1.026645797	154	1	1.1	0.9	;
	107	1	-198.7895398	3.738269099	0	0	4	1.036620729	-4.502307553	345	1	1.05	0.95	;
	108	2	925.9986333	102.1868875	0	0	4	1.05000001	0.315019121	345	1	1.05	0.95	;
	109	1	535.1200254	53.51200254	0	0	4	1.04271282	-0.688329695	345	1	1.05	0.95	;
	110	1	313.1577064	31.31577064	0	0	4	1.030230063	-3.35741383	154	1	1.1	0.9	;
	111	1	140.7393197	19.83108444	0	0	4	1.041287064	-0.104188671	345	1	1.05	0.95	;
	112	1	36.6626033	3.66626033	0	0	4	1.029316684	-3.814518782	154	1	1.1	0.9	;
	113	1	779.3136428	77.93184648	0	0	4	1.029053742	-3.429196896	154	1	1.1	0.9	;
	114	1	35.85793021	8.620395609	0	0	4	1.037687047	-0.937066089	154	1	1.1	0.9	;
	115	1	10.18944958	3.7590177	0	0	4	1.028982005	-3.884812443	154	1	1.1	0.9	;
	116	1	53.06493776	5.306493776	0	0	4	1.035219595	-1.64256653	154	1	1.1	0.9	;
	117	1	177.6187027	32.04135574	0	0	4	1.034438254	-1.730875937	154	1	1.1	0.9	;
	118	1	54.98602488	11.63686712	0	0	4	1.032197838	-2.179161104	154	1	1.1	0.9	;
	119	1	44.13097964	11.72324455	0	0	4	1.043986041	0.699755721	345	1	1.05	0.95	;
	120	1	36.86857932	4.806808261	0	0	4	1.043630697	0.825699101	154	1	1.1	0.9	;
	121	1	111.86309	11.186309	0	0	4	1.040022788	0.964865371	154	1	1.1	0.9	;
	122	1	92.63372415	9.263372415	0	0	4	1.038492117	-0.210862248	154	1	1.1	0.9	;
	123	1	61.03879269	7.534178308	0	0	4	1.044397655	1.049801378	154	1	1.1	0.9	;
	124	2	5.708602092	14.64174626	0	0	4	1.05000001	5.360949452	345	1	1.05	0.95	;
	125	1	26.54268284	3.118348337	0	0	4	1.043930831	0.872181	154	1	1.1	0.9	;
	126	1	509.8167987	51.94988202	0	0	4	1.042363347	1.068052375	345	1	1.05	0.95	;
	127	1	401.0615645	40.93620837	0	0	4	1.040498682	0.414899927	154	1	1.1	0.9	;
	128	2	598.3448535	61.85057754	0	0	4	1.035723241	-1.382369736	154	1	1.1	0.9	;
	129	1	54.67403094	7.320707655	0	0	4	1.038576475	-1.131815133	154	1	1.1	0.9	;
	130	1	18.29065032	9.260908691	0	0	4	1.042773348	0.764882229	345	1	1.05	0.95	;
	131	1	149.2319289	23.73256606	0	0	4	1.038997947	-0.496443757	154	1	1.1	0.9	;
	132	1	63.79466949	12.73974214	0	0	4	1.03931418	-0.953576035	154	1	1.1	0.9	;
	133	2	276.5971959	38.1307254	0	0	4	1.050000007	2.815155844	345	1	1.05	0.95	;
	134	2	831.3112474	86.87353744	0	0	4	1.05000001	3.249659659	345	1	1.05	0.95	;
	135	1	170.6098488	18.43675455	0	0	4	1.038842445	-1.160823033	154	1	1.1	0.9	;
	136	1	103.224604	21.20138383	0	0	4	1.043546373	0.380937097	345	1	1.05	0.95	;
	137	2	2494.305297	252.3145989	0	0	4	1.046983064	1.017245765	345	1	1.05	0.95	;
	138	1	10.28567672	5.452349914	0	0	4	1.044101919	0.795213503	154	1	1.1	0.9	;
	139	1	-59.96440205	5.784621706	0	0	4	1.040176323	-0.634020367	154	1	1.1	0.9	;
	140	1	33.3023432	6.689314029	0	0	4	1.041953627	0.05326969	154	1	1.1	0.9	;
	141	1	12.47696972	6.953153129	0	0	4	1.041066574	-0.318476514	154	1	1.1	0.9	;
	142	1	16.19227693	9.447857539	0	0	4	1.048247717	1.771843307	154	1	1.1	0.9	;
	143	1	28.74021483	13.58410999	0	0	4	1.038658517	-0.95408872	154	1	1.1	0.9	;
	144	1	45.20244267	6.248822241	0	0	4	1.038446963	-1.357240139	154	1	1.1	0.9	;
	145	1	167.8268918	19.41071613	0	0	4	1.030581129	-2.988180927	154	1	1.1	0.9	;
	146	1	21.93705873	5.677183115	0	0	5	1.023758753	-7.272652459	154	1	1.1	0.9	;
	147	1	63.02163301	7.695708511	0	0	5	1.033780199	-5.521033016	154	1	1.1	0.9	;
	148	1	375.2633055	41.66545229	0	0	5	1.008667669	-12.64238689	154	1	1.1	0.9	;
	149	1	1601.523525	164.8328802	0	0	5	1.015351977	-10.91141247	345	1	1.05	0.95	;
	150	1	910.0737245	91.66328349	0	0	5	1.028313238	-8.986942245	345	1	1.05	0.95	;
	151	1	769.1557761	77.46992581	0	0	5	1.030171632	-9.199632992	345	1	1.05	0.95	;
	152	1	321.4264069	34.71971791	0	0	5	1.021297839	-9.56334878	345	1	1.05	0.95	;
	153	1	236.3191955	27.2066835	0	0	5	1.027501828	-10.75837916	154	1	1.1	0.9	;
	154	1	170.128918	18.62208543	0	0	5	1.015767119	-10.90113449	154	1	1.1	0.9	;
	155	1	516.3503773	52.18138934	0	0	5	1.020275483	-11.1037573	154	1	1.1	0.9	;
	156	2	555.201045	56.21636251	0	0	5	1.041513557	-9.958832958	154	1	1.1	0.9	;
	157	1	262.3679689	26.46470728	0	0	5	1.011492364	-11.68780676	154	1	1.1	0.9	;
	158	2	642.6783867	69.23526848	0	0	5	1.029656136	-10.031865	154	1	1.1	0.9	;
	159	1	460.1474087	48.1537246	0	0	5	1.033595765	-9.284921808	345	1	1.05	0.95	;
	160	1	1347.472228	137.4293654	0	0	5	1.010600402	-11.71737337	154	1	1.1	0.9	;
	161	1	216.4051745	22.66123223	0	0	5	1.028581386	-6.619984015	345	1	1.05	0.95	;
	162	1	41.40865271	8.176879324	0	0	5	1.026681642	-5.648884296	154	1	1.1	0.9	;
	163	1	77.65275203	8.600465185	0	0	5	1.035216082	-7.704216462	345	1	1.05	0.95	;
	164	1	-28.86423105	7.232877733	0	0	5	1.027895789	-6.038354753	154	1	1.1	0.9	;
	165	2	2093.147984	210.8970818	0	0	5	1.036633015	-9.087287889	345	1	1.05	0.95	;
	166	2	672.1361906	67.74039475	0	0	5	1.048553755	-6.637730782	345	1	1.05	0.95	;
	167	2	2809.126623	281.4696652	0	0	5	1.04816517	-6.551430895	345	1	1.05	0.95	;
	168	1	158.7777732	17.9247688	0	0	5	1.038633392	-5.993638387	765	1	1.05	0.95	;
	169	1	36.32530988	5.051507535	0	0	5	1.026785661	-4.844185275	154	1	1.1	0.9	;
	170	1	-51.3285376	22.1972891	0	0	5	1.032308649	-6.247443268	154	1	1.1	0.9	;
	171	1	-190.6507297	6.213842876	0	0	5	1.030183609	-1.486535918	345	1	1.05	0.95	;
	172	1	618.390549	65.53358752	0	0	5	1.033910787	-6.436213561	154	1	1.1	0.9	;
	173	1	34.72687562	6.800374662	0	0	5	1.027997176	-2.383487034	345	1	1.05	0.95	;
	174	1	475.5835845	49.31208856	0	0	5	1.02146171	-3.530422968	345	1	1.05	0.95	;
	175	2	216.613215	22.35806548	0	0	5	1.05000001	-2.991354558	765	1	1.05	0.95	;
	176	1	635.3494743	64.78890856	0	0	5	1.017211101	-4.278491157	345	1	1.05	0.95	;
	177	1	813.3920035	82.8393089	0	0	5	1.01950875	-5.394477809	345	1	1.05	0.95	;
	178	1	912.2509998	93.63803182	0	0	5	1.014182552	-7.633753718	154	1	1.1	0.9	;
	179	1	495.5056649	49.97973019	0	0	5	1.045536224	-4.161107218	345	1	1.05	0.95	;
	180	1	440.4862117	46.74582584	0	0	5	1.017574867	-2.329362413	154	1	1.1	0.9	;
	181	2	420.5202672	42.37810284	0	0	5	1.04548857	-4.201747751	345	1	1.05	0.95	;
	182	1	734.6247265	76.50658215	0	0	5	1.014462292	-7.110759812	345	1	1.05	0.95	;
	183	1	339.4937073	34.60933756	0	0	5	1.016329429	-5.106201268	345	1	1.05	0.95	;
	184	1	680.3373446	68.3817352	0	0	5	1.045038288	-4.298443018	345	1	1.05	0.95	;
	185	1	389.0702074	39.07911205	0	0	5	1.043697675	-4.649355934	154	1	1.1	0.9	;
	186	1	580.3872123	58.51934691	0	0	5	1.044128026	-4.598479182	345	1	1.05	0.95	;
	187	1	79.54558396	8.087799154	0	0	5	1.044094767	-4.608467028	345	1	1.05	0.95	;
	188	1	32.27841448	7.386593886	0	0	5	1.042128806	2.567189166	154	1	1.1	0.9	;
	189	1	117.2427864	13.4835018	0	0	5	0.996473128	-3.454991565	154	1	1.1	0.9	;
	190	3	211.8048523	24.19455109	0	0	5	1	0	345	1	1.05	0.95	;
	191	1	330.4566527	33.67372918	0	0	5	0.988769821	-5.131713338	154	1	1.1	0.9	;
	192	1	160.1851013	16.82023905	0	0	5	0.992885634	-3.7285044	154	1	1.1	0.9	;
	193	2	33.23346994	4.797808314	0	0	5	1.05000001	5.161428681	345	1	1.05	0.95	;
];												
% generator data
%	bus	Pg	Qg	Qmax	Qmin	Vg	mBase	status	Pmax	Pmin	Pc1	Pc2	Qc1min	Qc1max	Qc2min	Qc2max	ramp_agc	ramp_10	ramp_30	ramp_q	apf
mpc.gen = [
	3	880.0000088	-55.55962336	440	-440	1.05000001	100	1	880	334.4	0	0	0	0	0	0	0	396	880	0	0;	%	LNG
	3	880.0000088	-55.55962336	440	-440	1.05000001	100	1	880	334.4	0	0	0	0	0	0	0	396	880	0	0;	%	LNG
	3	880.0000088	-55.55962336	440	-440	1.05000001	100	1	880	334.4	0	0	0	0	0	0	0	396	880	0	0;	%	LNG
	4	900.000009	-44.63190301	450	-450	1.05000001	100	1	900	342	0	0	0	0	0	0	0	405	900	0	0;	%	LNG
	4	880.0000088	-42.6885875	440	-440	1.05000001	100	1	880	334.4	0	0	0	0	0	0	0	396	880	0	0;	%	LNG
	7	550.0000055	134.2722962	275	-275	1.04922907	100	1	550	209	0	0	0	0	0	0	0	247.5	550	0	0;	%	LNG
	8	880.0000088	130.8060445	440	-440	1.05000001	100	1	880	334.4	0	0	0	0	0	0	0	396	880	0	0;	%	LNG
	8	550.0000055	53.89679465	275	-275	1.05000001	100	1	550	209	0	0	0	0	0	0	0	247.5	550	0	0;	%	LNG
	8	0	0	275	-275	1.05000001	100	0	550	209	0	0	0	0	0	0	0	247.5	550	0	0;	%	LNG
	8	440.0000044	34.96570252	220	-220	1.05000001	100	1	440	167.2	0	0	0	0	0	0	0	198	440	0	0;	%	LNG
	10	990.0000099	-116.9749196	495	-495	1.048624101	100	1	990	376.2	0	0	0	0	0	0	0	445.5	990	0	0;	%	LNG
	19	770.0000077	-384.9999789	385	-385	1.048303167	100	1	770	292.6	0	0	0	0	0	0	0	346.5	770	0	0;	%	LNG
	20	880.0000088	120.2380242	440	-440	1.052154229	100	1	880	334.4	0	0	0	0	0	0	0	396	880	0	0;	%	LNG
	21	0	0	495	-495	1.047856974	100	0	990	376.2	0	0	0	0	0	0	0	445.5	990	0	0;	%	LNG
	21	990.0000099	107.0184178	495	-495	1.047856974	100	1	990	376.2	0	0	0	0	0	0	0	445.5	990	0	0;	%	LNG
	21	0	0	495	-495	1.047856974	100	0	990	376.2	0	0	0	0	0	0	0	445.5	990	0	0;	%	LNG
	21	0	0	495	-495	1.047856974	100	0	990	376.2	0	0	0	0	0	0	0	445.5	990	0	0;	%	LNG
	26	0	0	275	-275	1.047501222	100	0	550	209	0	0	0	0	0	0	0	247.5	550	0	0;	%	LNG
	27	880.0000088	-7.491792401	440	-440	1.05000001	100	1	880	334.4	0	0	0	0	0	0	0	396	880	0	0;	%	LNG
	27	880.0000088	-7.491792401	440	-440	1.05000001	100	1	880	334.4	0	0	0	0	0	0	0	396	880	0	0;	%	LNG
	27	880.0000088	-7.491792401	440	-440	1.05000001	100	1	880	334.4	0	0	0	0	0	0	0	396	880	0	0;	%	LNG
	27	0	0	440	-440	1.05000001	100	0	880	334.4	0	0	0	0	0	0	0	396	880	0	0;	%	LNG
	36	990.0000099	162.5037627	495	-495	1.047060464	100	1	990	376.2	0	0	0	0	0	0	0	445.5	990	0	0;	%	LNG
	37	880.0000088	79.02591392	440	-440	1.048360324	100	1	880	334.4	0	0	0	0	0	0	0	396	880	0	0;	%	LNG
	37	770.0000077	60.95386352	385	-385	1.048360324	100	1	770	292.6	0	0	0	0	0	0	0	346.5	770	0	0;	%	LNG
	39	550.0000055	129.8152588	275	-275	1.046858138	100	1	550	209	0	0	0	0	0	0	0	247.5	550	0	0;	%	LNG
	39	0	0	275	-275	1.046858138	100	0	550	209	0	0	0	0	0	0	0	247.5	550	0	0;	%	LNG
	40	768.0625051	143.0773147	550	-550	1.05000001	100	1	1100	440	0	0	0	0	0	0	0	121	363	0	0;	%	Coal
	40	958.3646099	119.5749362	500	-500	1.05000001	100	1	1000	400	0	0	0	0	0	0	0	110	330	0	0;	%	Coal
	40	940.3055196	119.5749362	500	-500	1.05000001	100	1	1000	400	0	0	0	0	0	0	0	110	330	0	0;	%	Coal
	40	813.7761389	119.5749362	500	-500	1.05000001	100	1	1000	400	0	0	0	0	0	0	0	110	330	0	0;	%	Coal
	40	900.000009	97.87167144	450	-450	1.05000001	100	1	900	360	0	0	0	0	0	0	0	99	297	0	0;	%	Coal
	40	880.0000088	93.7566211	440	-440	1.05000001	100	1	880	334.4	0	0	0	0	0	0	0	396	880	0	0;	%	LNG
	48	850.0000085	217.8768788	425	-425	1.058280207	100	1	850	323	0	0	0	0	0	0	0	382.5	850	0	0;	%	LNG
	48	420.0000042	65.20298827	210	-210	1.058280207	100	1	420	159.6	0	0	0	0	0	0	0	189	420	0	0;	%	LNG
	49	800.000008	134.3713912	400	-400	1.065497187	100	1	800	304	0	0	0	0	0	0	0	360	800	0	0;	%	LNG
	49	700.000007	105.4399931	350	-350	1.065497187	100	1	700	280	0	0	0	0	0	0	0	77	231	0	0;	%	Coal
	49	700.000007	105.4399931	350	-350	1.065497187	100	1	700	280	0	0	0	0	0	0	0	77	231	0	0;	%	Coal
	49	550.0000055	67.30235013	275	-275	1.065497187	100	1	550	209	0	0	0	0	0	0	0	247.5	550	0	0;	%	LNG
	49	0	0	275	-275	1.065497187	100	0	550	209	0	0	0	0	0	0	0	247.5	550	0	0;	%	LNG
	49	440.0000044	43.98622479	220	-220	1.065497187	100	1	440	167.2	0	0	0	0	0	0	0	198	440	0	0;	%	LNG
	53	927.7312262	74.02050379	500	-500	1.05000001	100	1	1000	400	0	0	0	0	0	0	0	110	330	0	0;	%	Coal
	53	952.0077311	74.02050379	500	-500	1.05000001	100	1	1000	400	0	0	0	0	0	0	0	110	330	0	0;	%	Coal
	53	912.5602111	74.02050379	500	-500	1.05000001	100	1	1000	400	0	0	0	0	0	0	0	110	330	0	0;	%	Coal
	53	778.4483488	74.02050379	500	-500	1.05000001	100	1	1000	400	0	0	0	0	0	0	0	110	330	0	0;	%	Coal
	53	892.5578945	74.02050379	500	-500	1.05000001	100	1	1000	400	0	0	0	0	0	0	0	110	330	0	0;	%	Coal
	53	755.047933	60.2029067	450	-450	1.05000001	100	1	900	360	0	0	0	0	0	0	0	99	297	0	0;	%	Coal
	53	880.0000088	57.60150043	440	-440	1.05000001	100	1	880	334.4	0	0	0	0	0	0	0	396	880	0	0;	%	LNG
	53	880.0000088	57.60150043	440	-440	1.05000001	100	1	880	334.4	0	0	0	0	0	0	0	396	880	0	0;	%	LNG
	53	770.0000077	44.27668418	385	-385	1.05000001	100	1	770	292.6	0	0	0	0	0	0	0	346.5	770	0	0;	%	LNG
	58	440.0000044	15.23226127	220	-220	1.047273823	100	1	440	167.2	0	0	0	0	0	0	0	198	440	0	0;	%	LNG
	59	678.1729302	-6.86739863	550	-550	1.05000001	100	1	1100	440	0	0	0	0	0	0	0	121	363	0	0;	%	Coal
	59	822.8064882	-5.67568961	500	-500	1.05000001	100	1	1000	400	0	0	0	0	0	0	0	110	330	0	0;	%	Coal
	59	743.432977	-5.67568961	500	-500	1.05000001	100	1	1000	400	0	0	0	0	0	0	0	110	330	0	0;	%	Coal
	59	700.2011205	-5.67568961	500	-500	1.05000001	100	1	1000	400	0	0	0	0	0	0	0	110	330	0	0;	%	Coal
	59	838.8867618	-5.67568961	500	-500	1.05000001	100	1	1000	400	0	0	0	0	0	0	0	110	330	0	0;	%	Coal
	59	657.3693005	-4.597421127	450	-450	1.05000001	100	1	900	360	0	0	0	0	0	0	0	99	297	0	0;	%	Coal
	64	0	0	275	-275	1.037954785	100	0	550	209	0	0	0	0	0	0	0	247.5	550	0	0;	%	LNG
	65	200.000002	100.0000004	100	-100	1.057455765	100	1	200	80	0	0	0	0	0	0	0	22	66	0	0;	%	Coal
	68	603.6201923	-80.61180113	600	-600	1.05000001	100	1	1200	480	0	0	0	0	0	0	0	132	396	0	0;	%	Coal
	68	655.586362	-56.28700427	500	-500	1.05000001	100	1	1000	400	0	0	0	0	0	0	0	110	330	0	0;	%	Coal
	70	400.000004	200.0000016	200	-200	1.056480261	100	1	400	152	0	0	0	0	0	0	0	180	400	0	0;	%	LNG
	71	730.9578316	49.03828346	400	-400	1.05000001	100	1	800	320	0	0	0	0	0	0	0	88	264	0	0;	%	Coal
	71	645.4298494	49.03828346	400	-400	1.05000001	100	1	800	320	0	0	0	0	0	0	0	88	264	0	0;	%	Coal
	71	713.5324494	40.93371109	365	-365	1.05000001	100	1	730	292	0	0	0	0	0	0	0	80.3	240.9	0	0;	%	Coal
	79	800.000008	227.2623553	400	-400	1.05290634	100	1	800	304	0	0	0	0	0	0	0	360	800	0	0;	%	LNG
	82	0	0	700	-700	1.047893854	100	0	1400	1330	0	0	0	0	0	0	0	420	1260	0	0;	%	Nuclear
	82	1000.00001	-45.94366344	500	-500	1.047893854	100	1	1000	950	0	0	0	0	0	0	0	300	900	0	0;	%	Nuclear
	82	1000.00001	-45.94366344	500	-500	1.047893854	100	1	1000	950	0	0	0	0	0	0	0	300	900	0	0;	%	Nuclear
	82	1000.00001	-45.94366344	500	-500	1.047893854	100	1	1000	950	0	0	0	0	0	0	0	300	900	0	0;	%	Nuclear
	82	1000.00001	-45.94366344	500	-500	1.047893854	100	1	1000	950	0	0	0	0	0	0	0	300	900	0	0;	%	Nuclear
	82	950.0000095	-41.49805973	475	-475	1.047893854	100	1	950	902.5	0	0	0	0	0	0	0	285	855	0	0;	%	Nuclear
	82	950.0000095	-41.49805973	475	-475	1.047893854	100	1	950	902.5	0	0	0	0	0	0	0	285	855	0	0;	%	Nuclear
	100	867.5703432	26.89607169	550	-550	1.05000001	100	1	1100	440	0	0	0	0	0	0	0	121	363	0	0;	%	Coal
	100	906.0507406	22.23736953	500	-500	1.05000001	100	1	1000	400	0	0	0	0	0	0	0	110	330	0	0;	%	Coal
	100	827.0515172	22.23736953	500	-500	1.05000001	100	1	1000	400	0	0	0	0	0	0	0	110	330	0	0;	%	Coal
	100	821.0410289	22.23736953	500	-500	1.05000001	100	1	1000	400	0	0	0	0	0	0	0	110	330	0	0;	%	Coal
	100	825.0983042	18.0190304	450	-450	1.05000001	100	1	900	360	0	0	0	0	0	0	0	99	297	0	0;	%	Coal
	100	770.0000077	13.19514926	385	-385	1.05000001	100	1	770	292.6	0	0	0	0	0	0	0	346.5	770	0	0;	%	LNG
	100	770.0000077	13.19514926	385	-385	1.05000001	100	1	770	292.6	0	0	0	0	0	0	0	346.5	770	0	0;	%	LNG
	106	900.0000089	28.38402022	450	-450	1.051514972	100	1	900	360	0	0	0	0	0	0	0	99	297	0	0;	%	Coal
	108	770.0000077	260.2863355	385	-385	1.05000001	100	1	770	292.6	0	0	0	0	0	0	0	346.5	770	0	0;	%	LNG
	124	1000.00001	9.584894865	500	-500	1.05000001	100	1	1000	950	0	0	0	0	0	0	0	300	900	0	0;	%	Nuclear
	124	1000.00001	9.584894865	500	-500	1.05000001	100	1	1000	950	0	0	0	0	0	0	0	300	900	0	0;	%	Nuclear
	124	0	0	500	-500	1.05000001	100	0	1000	950	0	0	0	0	0	0	0	300	900	0	0;	%	Nuclear
	124	0	0	500	-500	1.05000001	100	0	1000	950	0	0	0	0	0	0	0	300	900	0	0;	%	Nuclear
	124	950.0000095	8.650677473	475	-475	1.05000001	100	1	950	902.5	0	0	0	0	0	0	0	285	855	0	0;	%	Nuclear
	124	950.0000095	8.650677473	475	-475	1.05000001	100	1	950	902.5	0	0	0	0	0	0	0	285	855	0	0;	%	Nuclear
	128	110.0000011	54.99999969	55	-55	1.035723241	100	1	110	41.8	0	0	0	0	0	0	0	49.5	110	0	0;	%	LNG
	133	500.000005	59.17925678	250	-250	1.050000007	100	1	500	200	0	0	0	0	0	0	0	55	165	0	0;	%	Coal
	134	880.0000088	59.94843383	440	-440	1.05000001	100	1	880	334.4	0	0	0	0	0	0	0	396	880	0	0;	%	LNG
	134	880.0000088	59.94843383	440	-440	1.05000001	100	1	880	334.4	0	0	0	0	0	0	0	396	880	0	0;	%	LNG
	134	880.0000088	59.94843383	440	-440	1.05000001	100	1	880	334.4	0	0	0	0	0	0	0	396	880	0	0;	%	LNG
	137	700.000007	299.1507415	350	-350	1.046983064	100	1	700	280	0	0	0	0	0	0	0	77	231	0	0;	%	Coal
	156	400.000004	183.1921108	200	-200	1.041513557	100	1	400	152	0	0	0	0	0	0	0	180	400	0	0;	%	LNG
	175	1400.000014	151.0100398	700	-700	1.05000001	100	1	1400	1330	0	0	0	0	0	0	0	420	1260	0	0;	%	Nuclear
	175	1400.000014	151.0100398	700	-700	1.05000001	100	1	1400	1330	0	0	0	0	0	0	0	420	1260	0	0;	%	Nuclear
	166	0	0	500	-500	1.048553755	100	0	1000	950	0	0	0	0	0	0	0	300	900	0	0;	%	Nuclear
	166	1000.00001	290.5452917	500	-500	1.048553755	100	1	1000	950	0	0	0	0	0	0	0	300	900	0	0;	%	Nuclear
	166	700.000007	166.3764282	350	-350	1.048553755	100	1	700	665	0	0	0	0	0	0	0	210	630	0	0;	%	Nuclear
	166	700.000007	166.3764282	350	-350	1.048553755	100	1	700	665	0	0	0	0	0	0	0	210	630	0	0;	%	Nuclear
	166	0	0	350	-350	1.048553755	100	0	700	665	0	0	0	0	0	0	0	210	630	0	0;	%	Nuclear
	166	440.0000044	75.04454216	220	-220	1.048553755	100	1	440	167.2	0	0	0	0	0	0	0	198	440	0	0;	%	LNG
	167	770.0000077	228.5515624	385	-385	1.04816517	100	1	770	292.6	0	0	0	0	0	0	0	346.5	770	0	0;	%	LNG
	167	550.0000055	136.0151318	275	-275	1.04816517	100	1	550	209	0	0	0	0	0	0	0	247.5	550	0	0;	%	LNG
	167	0	0	275	-275	1.04816517	100	0	550	209	0	0	0	0	0	0	0	247.5	550	0	0;	%	LNG
	167	440.0000044	94.1398007	220	-220	1.04816517	100	1	440	167.2	0	0	0	0	0	0	0	198	440	0	0;	%	LNG
	175	1000.00001	78.79955167	500	-500	1.05000001	100	1	1000	950	0	0	0	0	0	0	0	300	900	0	0;	%	Nuclear
	175	1000.00001	78.79955167	500	-500	1.05000001	100	1	1000	950	0	0	0	0	0	0	0	300	900	0	0;	%	Nuclear
	175	950.0000095	71.28543047	475	-475	1.05000001	100	1	950	902.5	0	0	0	0	0	0	0	285	855	0	0;	%	Nuclear
	175	950.0000095	71.28543047	475	-475	1.05000001	100	1	950	902.5	0	0	0	0	0	0	0	285	855	0	0;	%	Nuclear
	175	650.0000065	33.77212362	325	-325	1.05000001	100	1	650	617.5	0	0	0	0	0	0	0	195	585	0	0;	%	Nuclear
	181	990.0000099	289.7574595	495	-495	1.04548857	100	1	990	376.2	0	0	0	0	0	0	0	445.5	990	0	0;	%	LNG
	181	990.0000099	289.7574595	495	-495	1.04548857	100	1	990	376.2	0	0	0	0	0	0	0	445.5	990	0	0;	%	LNG
	190	808.5313635	-227.4572975	600	-600	1	100	1	1200	480	0	0	0	0	0	0	0	132	396	0	0;	%	Coal
	190	796.1655771	-164.4999485	500	-500	1	100	1	1000	400	0	0	0	0	0	0	0	110	330	0	0;	%	Coal
	190	769.8537916	-164.4999485	500	-500	1	100	1	1000	400	0	0	0	0	0	0	0	110	330	0	0;	%	Coal
	190	770.7388973	-135.8088572	450	-450	1	100	1	900	360	0	0	0	0	0	0	0	99	297	0	0;	%	Coal
	193	744.8139698	24.80542364	500	-500	1.05000001	100	1	1000	400	0	0	0	0	0	0	0	110	330	0	0;	%	Coal
	193	792.3194269	24.80542364	500	-500	1.05000001	100	1	1000	400	0	0	0	0	0	0	0	110	330	0	0;	%	Coal
	193	773.9334836	24.80542364	500	-500	1.05000001	100	1	1000	400	0	0	0	0	0	0	0	110	330	0	0;	%	Coal
	193	900.0000089	20.10177473	450	-450	1.05000001	100	1	900	360	0	0	0	0	0	0	0	99	297	0	0;	%	Coal
];

% branch data
%	fbus	tbus	r	x	b	rateA	rateB	rateC	ratio	angle	status	angmin	angmax
mpc.branch = [
	1	2	0.001953667	0.017794207	0.057753945	904	904	904	0	0	1	-60	60;	%	154	line	2
	1	3	0.002346024	0.021367842	0.069352749	904	904	904	0	0	1	-60	60;	%	154	line	2
	1	66	0.002789894	0.025410654	0.082474341	904	904	904	0	0	1	-60	60;	%	154	line	2
	2	3	0.000230027	0.002463512	0.207508013	2172	2172	2172	0	0	1	-60	60;	%	345	line	2
	2	4	0.001097043	0.009991982	0.032430577	904	904	904	0	0	1	-60	60;	%	154	line	2
	2	6	0.004587512	0.041783555	0.135615211	904	904	904	0	0	1	-60	60;	%	154	line	2
	3	4	0.000157872	0.001690763	0.142417379	2172	2172	2172	0	0	1	-60	60;	%	345	line	2
	3	7	0.001539844	0.014025061	0.04552058	904	904	904	0	0	1	-60	60;	%	154	line	2
	3	28	0.000668777	0.007162388	0.603306441	2172	2172	2172	0	0	1	-60	60;	%	345	line	2
	4	7	0.001330617	0.012119404	0.039335464	904	904	904	0	0	1	-60	60;	%	154	line	2
	4	8	0.000413018	0.004423289	0.372585094	2172	2172	2172	0	0	1	-60	60;	%	345	line	2
	5	16	0.00309813	0.028218105	0.091586372	904	904	904	0	0	1	-60	60;	%	154	line	2
	5	20	0.003233724	0.029453105	0.095594761	904	904	904	0	0	1	-60	60;	%	154	line	2
	5	66	0.002753227	0.025076687	0.081390398	904	904	904	0	0	1	-60	60;	%	154	line	2
	5	70	0.001710666	0.015580931	0.050570403	904	904	904	0	0	1	-60	60;	%	154	line	2
	6	8	0.001796592	0.016363559	0.053110546	904	904	904	0	0	1	-60	60;	%	154	line	2
	6	11	0.001545809	0.014079394	0.045696926	904	904	904	0	0	1	-60	60;	%	154	line	2
	7	9	0.000740338	0.006743076	0.021885732	904	904	904	0	0	1	-60	60;	%	154	line	2
	7	14	0.000255269	0.002733843	0.230278712	2172	2172	2172	0	0	1	-60	60;	%	345	line	2
	7	28	0.000583767	0.00625196	0.526618746	2172	2172	2172	0	0	1	-60	60;	%	345	line	2
	8	10	0.000160584	0.000184873	0.901984702	1416	1416	1416	0	0	1	-60	60;	%	154	cable	4
	8	11	0.000158062	0.001692798	0.142588761	2172	2172	2172	0	0	1	-60	60;	%	345	line	2
	8	14	0.000269282	0.002883925	0.242920462	2172	2172	2172	0	0	1	-60	60;	%	345	line	2
	9	12	0.000119405	0.000137466	0.167672111	708	708	708	0	0	1	-60	60;	%	154	cable	2
	9	13	0.000176983	0.000203752	0.248523638	708	708	708	0	0	1	-60	60;	%	154	cable	2
	9	15	0.000297907	0.000342968	0.41832935	708	708	708	0	0	1	-60	60;	%	154	cable	2
	10	14	0.00105221	0.00958364	0.031105236	904	904	904	0	0	1	-60	60;	%	154	line	2
	10	24	0.000243464	0.000280289	1.367512381	1416	1416	1416	0	0	1	-60	60;	%	154	cable	4
	11	21	0.00015784	0.00169041	0.142387631	2172	2172	2172	0	0	1	-60	60;	%	345	line	2
	11	25	0.00110679	0.010080759	0.032718716	904	904	904	0	0	1	-60	60;	%	154	line	2
	12	14	0.000665432	0.00606083	0.019671394	904	904	904	0	0	1	-60	60;	%	154	line	2
	12	18	0.000258897	0.000298056	0.363549377	708	708	708	0	0	1	-60	60;	%	154	cable	2
	13	16	0.000661549	0.006025463	0.019556605	904	904	904	0	0	1	-60	60;	%	154	line	2
	13	17	0.000189196	0.000217813	0.265674267	708	708	708	0	0	1	-60	60;	%	154	cable	2
	13	22	0.000821755	0.00748463	0.024292563	904	904	904	0	0	1	-60	60;	%	154	line	2
	14	18	9.94E-05	0.000114489	0.558582953	1416	1416	1416	0	0	1	-60	60;	%	154	cable	4
	14	19	2.70E-05	6.20E-05	1.344867636	1906	1906	1906	0	0	1	-60	60;	%	345	cable	2
	14	23	0.000322118	0.000370841	0.45232683	708	708	708	0	0	1	-60	60;	%	154	cable	2
	15	16	0.000110729	0.000127478	0.155489196	708	708	708	0	0	1	-60	60;	%	154	cable	2
	16	17	1.61E-05	3.70E-05	7.216516162	5718	5718	5718	0	0	1	-60	60;	%	345	cable	6
	16	20	0.000640865	0.005837068	0.018945138	904	904	904	0	0	1	-60	60;	%	154	line	2
	16	22	3.29E-05	7.57E-05	1.640782241	1906	1906	1906	0	0	1	-60	60;	%	345	cable	2
	16	28	0.000193401	0.002071259	0.697869898	4344	4344	4344	0	0	1	-60	60;	%	345	line	4
	17	18	8.50E-06	1.95E-05	1.693948976	3812	3812	3812	0	0	1	-60	60;	%	345	cable	4
	18	19	4.40E-05	5.07E-05	0.556557282	2124	2124	2124	0	0	1	-60	60;	%	154	cable	6
	18	30	0.000754369	0.006870878	0.022300533	904	904	904	0	0	1	-60	60;	%	154	line	2
	19	23	4.24E-05	4.88E-05	0.952412124	2832	2832	2832	0	0	1	-60	60;	%	154	cable	8
	20	22	0.000644357	0.005868869	0.019048354	904	904	904	0	0	1	-60	60;	%	154	line	2
	21	25	0.000588113	0.0053566	0.017385701	904	904	904	0	0	1	-60	60;	%	154	line	2
	21	34	9.49E-05	0.001016882	0.085654572	2172	2172	2172	0	0	1	-60	60;	%	345	line	2
	22	29	0.000157753	0.000181614	0.886083495	1416	1416	1416	0	0	1	-60	60;	%	154	cable	4
	22	36	0.000114952	0.001231098	0.103698609	2172	2172	2172	0	0	1	-60	60;	%	345	line	2
	22	38	0.000222736	0.002385427	0.200930653	2172	2172	2172	0	0	1	-60	60;	%	345	line	2
	22	46	0.000425686	0.004558955	0.384012537	2172	2172	2172	0	0	1	-60	60;	%	345	line	2
	23	24	8.28E-05	0.000754437	0.00979458	1808	1808	1808	0	0	1	-60	60;	%	154	line	4
	23	32	2.02E-05	4.64E-05	1.00675716	1906	1906	1906	0	0	1	-60	60;	%	345	cable	2
	23	33	0.000169968	0.000195677	0.238673524	708	708	708	0	0	1	-60	60;	%	154	cable	2
	24	26	0.000236381	0.000272135	0.331932151	708	708	708	0	0	1	-60	60;	%	154	cable	2
	25	26	0.00041452	0.003775492	0.012253963	904	904	904	0	0	1	-60	60;	%	154	line	2
	25	34	0.000619848	0.00564564	0.018323828	904	904	904	0	0	1	-60	60;	%	154	line	2
	26	32	0.000607908	0.005536893	0.01797087	904	904	904	0	0	1	-60	60;	%	154	line	2
	26	34	4.50E-05	0.000103577	2.245327702	1906	1906	1906	0	0	1	-60	60;	%	345	cable	2
	27	34	9.33E-05	0.000999417	0.336734	4344	4344	4344	0	0	1	-60	60;	%	345	line	4
	28	38	0.001685665	0.015353221	0.049831335	904	904	904	0	0	1	-60	60;	%	154	line	2
	28	41	0.002015591	0.018358223	0.059584548	904	904	904	0	0	1	-60	60;	%	154	line	2
	28	50	4.99E-05	0.001604545	3.267393078	14580	14580	14580	0	0	1	-60	60;	%	765	line	2
	28	80	0.000122152	0.003924627	7.991861101	14580	14580	14580	0	0	1	-60	60;	%	765	line	2
	29	30	8.04E-06	9.26E-06	0.04515506	1416	1416	1416	0	0	1	-60	60;	%	154	cable	4
	29	36	3.70E-05	8.52E-05	1.846241882	1906	1906	1906	0	0	1	-60	60;	%	345	cable	2
	30	31	0.00033011	0.003006676	0.009758648	904	904	904	0	0	1	-60	60;	%	154	line	2
	31	33	0.000235829	0.000271499	0.331156608	708	708	708	0	0	1	-60	60;	%	154	cable	2
	31	36	0.00107165	0.0097607	0.031679912	904	904	904	0	0	1	-60	60;	%	154	line	2
	32	33	6.05E-05	6.97E-05	0.1912274	1062	1062	1062	0	0	1	-60	60;	%	154	cable	3
	32	37	0.000239942	0.002569698	0.216452349	2172	2172	2172	0	0	1	-60	60;	%	345	line	2
	32	44	0.000338016	0.003620039	0.304925228	2172	2172	2172	0	0	1	-60	60;	%	345	line	2
	34	37	6.47E-05	0.000692975	0.058371101	2172	2172	2172	0	0	1	-60	60;	%	345	line	2
	35	37	0.000950447	0.008656772	0.028096937	904	904	904	0	0	1	-60	60;	%	154	line	2
	35	40	0.001104834	0.01006295	0.032660912	904	904	904	0	0	1	-60	60;	%	154	line	2
	36	38	0.000952048	0.00867136	0.028144286	904	904	904	0	0	1	-60	60;	%	154	line	2
	36	43	0.001604892	0.014617531	0.047443535	904	904	904	0	0	1	-60	60;	%	154	line	2
	36	44	0.000327256	0.003504805	0.295218756	2172	2172	2172	0	0	1	-60	60;	%	345	line	2
	36	46	0.000315296	0.00337672	0.284429868	2172	2172	2172	0	0	1	-60	60;	%	345	line	2
	37	40	0.000237739	0.002546111	0.214465483	2172	2172	2172	0	0	1	-60	60;	%	345	line	2
	38	42	0.001675214	0.015258027	0.049522368	904	904	904	0	0	1	-60	60;	%	154	line	2
	38	45	0.001624604	0.014797065	0.048026242	904	904	904	0	0	1	-60	60;	%	154	line	2
	38	46	0.001525585	0.013895192	0.045099066	904	904	904	0	0	1	-60	60;	%	154	line	2
	38	84	0.000977268	0.010466224	0.881597169	2172	2172	2172	0	0	1	-60	60;	%	345	line	2
	39	44	0.000549539	0.00500526	0.064981493	1808	1808	1808	0	0	1	-60	60;	%	154	line	4
	40	44	0.000186834	0.002000932	0.16854368	2172	2172	2172	0	0	1	-60	60;	%	345	line	2
	40	47	0.000177428	0.001900194	0.160058219	2172	2172	2172	0	0	1	-60	60;	%	345	line	2
	41	42	0.001299581	0.011836722	0.038417974	904	904	904	0	0	1	-60	60;	%	154	line	2
	41	52	0.003101751	0.028251087	0.091693421	904	904	904	0	0	1	-60	60;	%	154	line	2
	41	77	0.002217352	0.020195883	0.065548969	904	904	904	0	0	1	-60	60;	%	154	line	2
	42	46	0.00172419	0.015704108	0.050970195	904	904	904	0	0	1	-60	60;	%	154	line	2
	42	84	0.004178797	0.038060939	0.123532864	904	904	904	0	0	1	-60	60;	%	154	line	2
	43	44	0.000449352	0.004092749	0.013283673	904	904	904	0	0	1	-60	60;	%	154	line	2
	44	48	0.001280818	0.011665829	0.037863315	904	904	904	0	0	1	-60	60;	%	154	line	2
	44	57	0.000681396	0.007297531	0.614689901	2172	2172	2172	0	0	1	-60	60;	%	345	line	2
	45	46	0.000111099	0.001189836	0.100222927	2172	2172	2172	0	0	1	-60	60;	%	345	line	2
	45	50	0.00040114	0.004296079	0.361869864	2172	2172	2172	0	0	1	-60	60;	%	345	line	2
	46	48	0.001260894	0.011484355	0.037274311	904	904	904	0	0	1	-60	60;	%	154	line	2
	46	50	0.000334595	0.003583402	0.301839233	2172	2172	2172	0	0	1	-60	60;	%	345	line	2
	47	49	0.001906713	0.017366547	0.056365905	904	904	904	0	0	1	-60	60;	%	154	line	2
	47	60	0.000752607	0.008060181	0.67892992	2172	2172	2172	0	0	1	-60	60;	%	345	line	2
	48	49	0.001480551	0.013485018	0.043767781	904	904	904	0	0	1	-60	60;	%	154	line	2
	48	51	0.001270961	0.011576049	0.037571917	904	904	904	0	0	1	-60	60;	%	154	line	2
	49	51	0.000674342	0.006141977	0.079739067	1808	1808	1808	0	0	1	-60	60;	%	154	line	4
	49	53	0.002230934	0.020319589	0.065950477	904	904	904	0	0	1	-60	60;	%	154	line	2
	50	51	0.000183433	0.001964511	0.165475847	2172	2172	2172	0	0	1	-60	60;	%	345	line	2
	50	54	0.000298513	0.003196975	0.269289514	2172	2172	2172	0	0	1	-60	60;	%	345	line	2
	50	62	4.12E-05	0.001322961	2.693994224	14580	14580	14580	0	0	1	-60	60;	%	765	line	2
	51	55	0.001436718	0.01308578	0.042471992	904	904	904	0	0	1	-60	60;	%	154	line	2
	51	57	0.00189377	0.017248658	0.055983277	904	904	904	0	0	1	-60	60;	%	154	line	2
	52	54	0.001933006	0.017606027	0.057143176	904	904	904	0	0	1	-60	60;	%	154	line	2
	52	56	0.001462649	0.013321963	0.04323856	904	904	904	0	0	1	-60	60;	%	154	line	2
	52	84	0.001585688	0.014442614	0.046875812	904	904	904	0	0	1	-60	60;	%	154	line	2
	53	55	0.000288514	0.003089893	1.041078801	4344	4344	4344	0	0	1	-60	60;	%	345	line	4
	53	58	0.000270064	0.002892303	0.243626177	2172	2172	2172	0	0	1	-60	60;	%	345	line	2
	53	63	2.79E-05	0.000896312	1.825192122	14580	14580	14580	0	0	1	-60	60;	%	765	line	2
	54	55	0.002132132	0.019419691	0.063029714	904	904	904	0	0	1	-60	60;	%	154	line	2
	54	61	0.001817125	0.016550571	0.053717525	904	904	904	0	0	1	-60	60;	%	154	line	2
	54	62	0.000345552	0.003700749	0.311723639	2172	2172	2172	0	0	1	-60	60;	%	345	line	2
	55	57	0.000154208	0.001651521	0.139111914	2172	2172	2172	0	0	1	-60	60;	%	345	line	2
	55	64	0.003142511	0.028622331	0.092898352	904	904	904	0	0	1	-60	60;	%	154	line	2
	56	61	0.001408725	0.01283082	0.041644479	904	904	904	0	0	1	-60	60;	%	154	line	2
	57	60	0.001430752	0.01303144	0.042295623	904	904	904	0	0	1	-60	60;	%	154	line	2
	57	97	0.000552148	0.005913329	0.498094995	2172	2172	2172	0	0	1	-60	60;	%	345	line	2
	58	59	9.25E-05	0.000990427	0.33370504	4344	4344	4344	0	0	1	-60	60;	%	345	line	4
	58	63	0.000339534	0.003636299	0.30629491	2172	2172	2172	0	0	1	-60	60;	%	345	line	2
	60	63	0.000254942	0.002730347	0.229984176	2172	2172	2172	0	0	1	-60	60;	%	345	line	2
	60	100	0.000568608	0.006089613	0.512943851	2172	2172	2172	0	0	1	-60	60;	%	345	line	2
	61	62	0.000190755	0.001737417	0.022556263	1808	1808	1808	0	0	1	-60	60;	%	154	line	4
	62	63	6.31E-05	0.00202596	4.125535352	14580	14580	14580	0	0	1	-60	60;	%	765	line	2
	62	64	0.00024797	0.002655684	0.223695124	2172	2172	2172	0	0	1	-60	60;	%	345	line	2
	63	97	0.001705746	0.015536123	0.050424972	904	904	904	0	0	1	-60	60;	%	154	line	2
	64	96	0.001229987	0.011202852	0.036360649	904	904	904	0	0	1	-60	60;	%	154	line	2
	64	98	0.00145865	0.013285543	0.043120356	904	904	904	0	0	1	-60	60;	%	154	line	2
	64	99	0.00122871	0.011191219	0.036322892	904	904	904	0	0	1	-60	60;	%	154	line	2
	64	102	0.00020466	0.002191839	0.73849704	4344	4344	4344	0	0	1	-60	60;	%	345	line	4
	65	68	0.001222283	0.011132689	0.036132921	904	904	904	0	0	1	-60	60;	%	154	line	2
	65	69	0.003164497	0.028822584	0.093548306	904	904	904	0	0	1	-60	60;	%	154	line	2
	66	67	0.001903714	0.01733923	0.056277244	904	904	904	0	0	1	-60	60;	%	154	line	2
	66	70	0.001986687	0.018094956	0.058730073	904	904	904	0	0	1	-60	60;	%	154	line	2
	67	69	0.001285688	0.011710181	0.038007266	904	904	904	0	0	1	-60	60;	%	154	line	2
	68	69	0.00309092	0.02815243	0.091373212	904	904	904	0	0	1	-60	60;	%	154	line	2
	68	71	0.000542799	0.0058132	0.489660838	2172	2172	2172	0	0	1	-60	60;	%	345	line	2
	69	72	0.003845431	0.035024597	0.113677932	904	904	904	0	0	1	-60	60;	%	154	line	2
	70	72	0.001924592	0.017529395	0.056894456	904	904	904	0	0	1	-60	60;	%	154	line	2
	71	73	0.000429713	0.004602092	0.387646086	2172	2172	2172	0	0	1	-60	60;	%	345	line	2
	71	78	0.005029715	0.045811184	0.148687523	904	904	904	0	0	1	-60	60;	%	154	line	2
	72	74	0.001850173	0.016851572	0.054694473	904	904	904	0	0	1	-60	60;	%	154	line	2
	73	75	0.000154736	0.001657168	0.139587554	2172	2172	2172	0	0	1	-60	60;	%	345	line	2
	73	76	0.003400257	0.030969904	0.100517777	904	904	904	0	0	1	-60	60;	%	154	line	2
	73	79	0.005323371	0.048485836	0.157368535	904	904	904	0	0	1	-60	60;	%	154	line	2
	73	80	0.003287737	0.029945065	0.097191498	904	904	904	0	0	1	-60	60;	%	154	line	2
	73	81	0.001180594	0.012643784	1.065018618	2172	2172	2172	0	0	1	-60	60;	%	345	line	2
	74	77	0.001050785	0.009570661	0.03106311	904	904	904	0	0	1	-60	60;	%	154	line	2
	74	78	0.003080612	0.028058549	0.091068507	904	904	904	0	0	1	-60	60;	%	154	line	2
	75	82	0.000690812	0.007398375	0.623184303	2172	2172	2172	0	0	1	-60	60;	%	345	line	2
	76	79	0.00216439	0.019713499	0.063983315	904	904	904	0	0	1	-60	60;	%	154	line	2
	77	81	0.002745828	0.0250093	0.081171682	904	904	904	0	0	1	-60	60;	%	154	line	2
	78	81	0.002422622	0.022065501	0.071617111	904	904	904	0	0	1	-60	60;	%	154	line	2
	79	80	0.003522928	0.032087205	0.104144155	904	904	904	0	0	1	-60	60;	%	154	line	2
	79	81	0.001905365	0.017354266	0.056326045	904	904	904	0	0	1	-60	60;	%	154	line	2
	79	83	0.001772751	0.016146406	0.052405742	904	904	904	0	0	1	-60	60;	%	154	line	2
	80	82	3.61E-05	0.00115912	2.360357594	14580	14580	14580	0	0	1	-60	60;	%	765	line	2
	81	84	0.00122041	0.011115623	0.144310127	1808	1808	1808	0	0	1	-60	60;	%	154	line	4
	81	86	0.000662535	0.007095536	0.59767536	2172	2172	2172	0	0	1	-60	60;	%	345	line	2
	82	85	0.004627741	0.042149964	0.136804449	904	904	904	0	0	1	-60	60;	%	154	line	2
	82	86	0.000927929	0.009937818	0.837088105	2172	2172	2172	0	0	1	-60	60;	%	345	line	2
	82	94	0.005001876	0.045557628	0.147864567	904	904	904	0	0	1	-60	60;	%	154	line	2
	83	89	0.003668123	0.033409661	0.108436396	904	904	904	0	0	1	-60	60;	%	154	line	2
	85	86	0.000987046	0.00899012	0.029178874	904	904	904	0	0	1	-60	60;	%	154	line	2
	86	87	0.000301405	0.003227955	0.271898989	2172	2172	2172	0	0	1	-60	60;	%	345	line	2
	86	89	0.003643968	0.033189659	0.107722346	904	904	904	0	0	1	-60	60;	%	154	line	2
	86	90	0.002477336	0.022563841	0.073234554	904	904	904	0	0	1	-60	60;	%	154	line	2
	86	92	0.000752885	0.008063158	0.67918067	2172	2172	2172	0	0	1	-60	60;	%	345	line	2
	87	90	0.002118269	0.019293421	0.062619884	904	904	904	0	0	1	-60	60;	%	154	line	2
	87	95	0.000515412	0.005519901	0.464955523	2172	2172	2172	0	0	1	-60	60;	%	345	line	2
	88	92	0.001978682	0.018022046	0.058493431	904	904	904	0	0	1	-60	60;	%	154	line	2
	88	94	0.002833759	0.025810183	0.083771075	904	904	904	0	0	1	-60	60;	%	154	line	2
	89	93	0.001483845	0.013515018	0.043865152	904	904	904	0	0	1	-60	60;	%	154	line	2
	90	92	0.002453205	0.022344057	0.072521209	904	904	904	0	0	1	-60	60;	%	154	line	2
	91	147	0.00275034	0.025050396	0.081305066	904	904	904	0	0	1	-60	60;	%	154	line	2
	92	95	0.000460572	0.004932573	0.415483409	2172	2172	2172	0	0	1	-60	60;	%	345	line	2
	93	102	0.004195747	0.038215319	0.124033929	904	904	904	0	0	1	-60	60;	%	154	line	2
	93	149	0.002966654	0.027020609	0.087699707	904	904	904	0	0	1	-60	60;	%	154	line	2
	94	150	0.00258422	0.023537359	0.076394262	904	904	904	0	0	1	-60	60;	%	154	line	2
	95	146	0.001216475	0.011079788	0.035961223	904	904	904	0	0	1	-60	60;	%	154	line	2
	95	150	0.000858914	0.009198692	0.774829649	2172	2172	2172	0	0	1	-60	60;	%	345	line	2
	95	152	0.003724941	0.033927169	0.110116054	904	904	904	0	0	1	-60	60;	%	154	line	2
	96	97	0.002346462	0.021371826	0.069365678	904	904	904	0	0	1	-60	60;	%	154	line	2
	96	103	0.002051033	0.01868103	0.060632271	904	904	904	0	0	1	-60	60;	%	154	line	2
	97	100	0.000128497	0.001376164	0.463671503	4344	4344	4344	0	0	1	-60	60;	%	345	line	4
	97	102	0.00092063	0.009859649	0.830503733	2172	2172	2172	0	0	1	-60	60;	%	345	line	2
	97	104	0.000506958	0.005429358	0.457328847	2172	2172	2172	0	0	1	-60	60;	%	345	line	2
	97	109	0.00073851	0.007909207	0.666212996	2172	2172	2172	0	0	1	-60	60;	%	345	line	2
	98	102	0.001045164	0.009519471	0.030896965	904	904	904	0	0	1	-60	60;	%	154	line	2
	99	101	0.000297395	0.002708705	0.008791536	904	904	904	0	0	1	-60	60;	%	154	line	2
	99	104	0.002194901	0.019991395	0.064885269	904	904	904	0	0	1	-60	60;	%	154	line	2
...
];

% area data
%	area	refbus
mpc.areas = [
	1	1;
];

% generator cost data, 1000won = 1$
%	1	startup	shutdown	n	x1	y1	...	xn	yn
%	2	startup	shutdown	n	c(n-1)	...	c0
mpc.gencost = [
	2	47398.56	0	3	0.004601045	50.24290385	5213.283648	;	%	LNG
	2	47398.56	0	3	0.005189187	56.66535106	5879.686989	;	%	LNG
	2	47398.56	0	3	0.00498398	54.42451217	5647.17398	;	%	LNG
	2	48475.8	0	3	0.004740136	51.76176213	5370.8828	;	%	LNG
	2	47398.56	0	3	0.004595392	50.18117602	5206.87867	;	%	LNG
	2	29624.1	0	3	0.003450077	63.95530101	3318.051898	;	%	LNG
	2	47398.56	0	3	0.005138019	56.10660281	5821.710382	;	%	LNG
	2	29624.1	0	3	0.003292734	61.03857345	3166.729751	;	%	LNG
	2	29624.1	0	3	0.003507227	65.01469671	3373.01419	;	%	LNG
	2	23699.28	0	3	0.002225588	48.00564815	2490.571218	;	%	LNG
	2	53323.38	0	3	0.006070672	57.28039586	5943.505016	;	%	LNG
	2	41473.74	0	3	0.004445024	50.89616612	5281.06718	;	%	LNG
	2	47398.56	0	3	0.004480435	48.92585766	5076.62484	;	%	LNG
	2	53323.38	0	3	0.006671083	62.94563192	6531.338924	;	%	LNG
	2	53323.38	0	3	0.00600571	56.66743609	5879.903336	;	%	LNG
	2	53323.38	0	3	0.006110409	57.6553342	5982.409215	;	%	LNG
	2	53323.38	0	3	0.006358116	59.99259789	6224.927414	;	%	LNG
	2	29624.1	0	3	0.003827745	70.95626507	3681.267483	;	%	LNG
	2	47398.56	0	3	0.004819289	52.62611156	5460.569072	;	%	LNG
	2	47398.56	0	3	0.005297695	57.85024762	6002.633741	;	%	LNG
	2	47398.56	0	3	0.004644605	50.71857822	5262.640377	;	%	LNG
	2	47398.56	0	3	0.00534413	58.3573128	6055.247631	;	%	LNG
	2	53323.38	0	3	0.006185094	58.36003722	6055.530322	;	%	LNG
	2	47398.56	0	3	0.004908156	53.59652525	5561.26074	;	%	LNG
	2	41473.74	0	3	0.004253628	48.70465336	5053.672329	;	%	LNG
	2	29624.1	0	3	0.003344804	62.00381461	3216.807231	;	%	LNG
	2	29624.1	0	3	0.003618647	67.08013383	3480.17071	;	%	LNG
	2	13866.6	0	3	0.03056746	27.1737834	2447.834897	;	%	Coal
	2	12606	0	3	0.02638636	23.55371598	1921.595023	;	%	Coal
	2	12606	0	3	0.02673	23.86049012	1946.622737	;	%	Coal
	2	12606	0	3	0.029414	26.2564005	2142.089536	;	%	Coal
	2	11345.4	0	3	0.0256102	22.91199596	1679.158626	;	%	Coal
	2	47398.56	0	3	0.004658845	50.8740774	5278.77522	;	%	LNG
	2	45782.7	0	3	0.00463853	47.8568101	4965.698763	;	%	LNG
	2	22622.04	0	3	0.002143461	48.52912753	2517.729745	;	%	LNG
	2	43089.6	0	3	0.005144581	49.97505786	5185.491522	;	%	LNG
	2	8824.2	0	3	0.02869702	25.78819927	1464.460476	;	%	Coal
	2	8824.2	0	3	0.02607132	23.42872105	1330.470408	;	%	Coal
	2	29624.1	0	3	0.003443606	63.83534042	3311.828247	;	%	LNG
	2	29624.1	0	3	0.003731847	69.17856401	3589.038938	;	%	LNG
	2	23699.28	0	3	0.0021215	50.30180805	2609.697821	;	%	LNG
	2	12606	0	3	0.0265221	23.67492985	1931.484077	;	%	Coal
	2	12606	0	3	0.02606164	23.26392503	1897.952858	;	%	Coal
	2	12606	0	3	0.02681822	23.93920955	1953.044945	;	%	Coal
	2	12606	0	3	0.02975478	26.56057184	2166.904904	;	%	Coal
	2	12606	0	3	0.02721884	24.29690952	1982.227367	;	%	Coal
	2	11345.4	0	3	0.03030918	27.11592314	1987.253155	;	%	Coal
	2	47398.56	0	3	0.004825899	52.6982868	5468.05809	;	%	LNG
	2	47398.56	0	3	0.004614698	50.3919949	5228.753572	;	%	LNG
	2	41473.74	0	3	0.004151623	47.5366803	4932.481586	;	%	LNG
	2	23699.28	0	3	0.002248107	48.49138028	2515.771388	;	%	LNG
	2	13866.6	0	3	0.02949914	26.22398471	2362.276314	;	%	Coal
	2	12606	0	3	0.02609464	23.29334293	1900.352874	;	%	Coal
	2	12606	0	3	0.0278355	24.84736387	2027.13537	;	%	Coal
	2	12606	0	3	0.02888512	25.78423435	2103.56856	;	%	Coal
	2	12606	0	3	0.02576816	23.00188453	1876.574672	;	%	Coal
	2	11345.4	0	3	0.02997896	26.8205252	1965.604233	;	%	Coal
	2	29624.1	0	3	0.003781487	70.09875597	3636.779228	;	%	LNG
	2	2521.2	0	3	0.02920346	26.3880225	1227.02187	;	%	Coal
	2	15127.2	0	3	0.03011184	26.607723	2629.633684	;	%	Coal
	2	12606	0	3	0.02856854	25.50166189	2080.515305	;	%	Coal
	2	21544.8	0	3	0.002190581	47.25055464	2451.396366	;	%	LNG
	2	10084.8	0	3	0.02665058	23.85120778	1553.769721	;	%	Coal
	2	10084.8	0	3	0.02873618	25.71773146	1675.363059	;	%	Coal
	2	9202.38	0	3	0.02700896	24.26856934	1437.227878	;	%	Coal
	2	43089.6	0	3	0.004506906	51.60472841	5354.588731	;	%	LNG
	2	0	0	3	0.003036431	8.292257296	0	;	%	Nuclear
	2	0	0	3	0.002488928	6.048387453	0	;	%	Nuclear
	2	0	0	3	0.002216052	5.385267407	0	;	%	Nuclear
	2	0	0	3	0.002465857	5.992320854	0	;	%	Nuclear
	2	0	0	3	0.002166224	5.26417786	0	;	%	Nuclear
	2	0	0	3	0.002016009	4.801709639	0	;	%	Nuclear
	2	0	0	3	0.002075879	4.944308729	0	;	%	Nuclear
	2	13866.6	0	3	0.02754884	24.49033832	2206.10814	;	%	Coal
	2	12606	0	3	0.02672758	23.85836416	1946.449293	;	%	Coal
	2	12606	0	3	0.02838572	25.33854588	2067.207727	;	%	Coal
	2	12606	0	3	0.02852036	25.45868003	2077.008692	;	%	Coal
	2	11345.4	0	3	0.02840706	25.4142174	1862.539712	;	%	Coal
	2	41473.74	0	3	0.004547713	52.07197079	5403.070543	;	%	LNG
	2	41473.74	0	3	0.004411317	50.5102111	5241.019874	;	%	LNG
	2	11345.4	0	3	0.02656764	23.76848326	1741.928279	;	%	Coal
	2	41473.74	0	3	0.004370883	50.04723858	5192.981108	;	%	LNG
	2	0	0	3	0.002093114	5.086512482	0	;	%	Nuclear
	2	0	0	3	0.002257314	5.485537961	0	;	%	Nuclear
	2	0	0	3	0.002219991	5.394838185	0	;	%	Nuclear
	2	0	0	3	0.002096917	5.095755455	0	;	%	Nuclear
	2	0	0	3	0.002281964	5.435158894	0	;	%	Nuclear
	2	0	0	3	0.002403539	5.724725211	0	;	%	Nuclear
	2	5924.82	0	3	0.005345829	36.87241612	637.656761	;	%	LNG
	2	6303	0	3	0.02862178	25.7868722	1827.729401	;	%	Coal
	2	47398.56	0	3	0.00477091	52.09781206	5405.751875	;	%	LNG
	2	47398.56	0	3	0.005298641	57.86057388	6003.705211	;	%	LNG
	2	47398.56	0	3	0.004629736	50.55620672	5245.792452	;	%	LNG
	2	8824.2	0	3	0.02916122	26.20532122	1488.148001	;	%	Coal
	2	21544.8	0	3	0.002339635	50.46562034	2618.196532	;	%	LNG
	2	0	0	3	0.002787101	7.611356666	0	;	%	Nuclear
	2	0	0	3	0.002589901	7.072820045	0	;	%	Nuclear
	2	0	0	3	0.002217254	5.388186707	0	;	%	Nuclear
	2	0	0	3	0.002197161	5.339360046	0	;	%	Nuclear
	2	0	0	3	0.001995453	4.16159826	0	;	%	Nuclear
	2	0	0	3	0.001715461	3.577662996	0	;	%	Nuclear
	2	0	0	3	0.001778041	3.70817768	0	;	%	Nuclear
	2	23699.28	0	3	0.002255913	48.65975234	2524.506664	;	%	LNG
	2	41473.74	0	3	0.004349065	49.79741857	5167.059386	;	%	LNG
	2	29624.1	0	3	0.003444712	63.85584088	3312.891827	;	%	LNG
	2	29624.1	0	3	0.003759294	69.68736468	3615.435922	;	%	LNG
	2	23699.28	0	3	0.002193528	47.31413069	2454.694742	;	%	LNG
	2	0	0	3	0.002076182	5.045367131	0	;	%	Nuclear
	2	0	0	3	0.002101611	5.10716125	0	;	%	Nuclear
	2	0	0	3	0.002324059	5.535420409	0	;	%	Nuclear
	2	0	0	3	0.002404056	5.725956486	0	;	%	Nuclear
	2	0	0	3	0.001659055	3.338642759	0	;	%	Nuclear
	2	53323.38	0	3	0.006162351	58.145443	6033.263684	;	%	LNG
	2	53323.38	0	3	0.005959016	56.22685735	5834.188184	;	%	LNG
	2	15127.2	0	3	0.02935504	25.93904663	2563.548589	;	%	Coal
	2	12606	0	3	0.02954072	26.36937889	2151.306711	;	%	Coal
	2	12606	0	3	0.03017982	26.93988995	2197.85101	;	%	Coal
	2	11345.4	0	3	0.03013318	26.95835981	1975.705761	;	%	Coal
	2	12606	0	3	0.03021238	26.96907006	2200.231626	;	%	Coal
	2	12606	0	3	0.02905364	25.93474864	2115.848045	;	%	Coal
	2	12606	0	3	0.02949144	26.32544964	2147.722808	;	%	Coal
	2	11345.4	0	3	0.02567466	22.9696403	1683.383225	;	%	Coal
];

%   genthermal data// UT, DT, inistate, startupdelay 1, 2, 3 ==> hour, initialpower, ramp_up, ramp_down, startup_limit, shutdown_limit ==> MW
%	type_thermal, UT, DT, inistate, initialpower, ramp_up, ramp_down, startup_limit, shutdown_limit, startup1, startup2, startup3, startupdelay1, startupdelay2, startupdelay3
mpc.genthermal = [
	3	4	3	24	880.0000088	880	880	880	880	47398.56	52138.416	56878.272	3	6	12	;	%	LNG
	3	4	3	24	880.0000088	880	880	880	880	47398.56	52138.416	56878.272	3	6	12	;	%	LNG
	3	4	3	24	880.0000088	880	880	880	880	47398.56	52138.416	56878.272	3	6	12	;	%	LNG
	3	4	3	24	900.000009	900	900	900	900	48475.8	53323.38	58170.96	3	6	12	;	%	LNG
	3	4	3	24	880.0000088	880	880	880	880	47398.56	52138.416	56878.272	3	6	12	;	%	LNG
	3	4	3	24	550.0000055	550	550	550	550	29624.1	32586.51	35548.92	3	6	12	;	%	LNG
	3	4	3	24	880.0000088	880	880	880	880	47398.56	52138.416	56878.272	3	6	12	;	%	LNG
	3	4	3	24	550.0000055	550	550	550	550	29624.1	32586.51	35548.92	3	6	12	;	%	LNG
	3	4	3	-24	0	550	550	550	550	29624.1	32586.51	35548.92	3	6	12	;	%	LNG
	3	4	3	24	440.0000044	440	440	440	440	23699.28	26069.208	28439.136	3	6	12	;	%	LNG
	3	4	3	24	990.0000099	990	990	990	990	53323.38	58655.718	63988.056	3	6	12	;	%	LNG
	3	4	3	24	770.0000077	770	770	770	770	41473.74	45621.114	49768.488	3	6	12	;	%	LNG
	3	4	3	24	880.0000088	880	880	880	880	47398.56	52138.416	56878.272	3	6	12	;	%	LNG
	3	4	3	-24	0	990	990	990	990	53323.38	58655.718	63988.056	3	6	12	;	%	LNG
	3	4	3	24	990.0000099	990	990	990	990	53323.38	58655.718	63988.056	3	6	12	;	%	LNG
	3	4	3	-24	0	990	990	990	990	53323.38	58655.718	63988.056	3	6	12	;	%	LNG
	3	4	3	-24	0	990	990	990	990	53323.38	58655.718	63988.056	3	6	12	;	%	LNG
	3	4	3	-24	0	550	550	550	550	29624.1	32586.51	35548.92	3	6	12	;	%	LNG
	3	4	3	24	880.0000088	880	880	880	880	47398.56	52138.416	56878.272	3	6	12	;	%	LNG
	3	4	3	24	880.0000088	880	880	880	880	47398.56	52138.416	56878.272	3	6	12	;	%	LNG
	3	4	3	24	880.0000088	880	880	880	880	47398.56	52138.416	56878.272	3	6	12	;	%	LNG
	3	4	3	-24	0	880	880	880	880	47398.56	52138.416	56878.272	3	6	12	;	%	LNG
	3	4	3	24	990.0000099	990	990	990	990	53323.38	58655.718	63988.056	3	6	12	;	%	LNG
	3	4	3	24	880.0000088	880	880	880	880	47398.56	52138.416	56878.272	3	6	12	;	%	LNG
	3	4	3	24	770.0000077	770	770	770	770	41473.74	45621.114	49768.488	3	6	12	;	%	LNG
	3	4	3	24	550.0000055	550	550	550	550	29624.1	32586.51	35548.92	3	6	12	;	%	LNG
	3	4	3	-24	0	550	550	550	550	29624.1	32586.51	35548.92	3	6	12	;	%	LNG
	3	6	12	24	768.0625051	726	726	726	726	13866.6	15253.26	16639.92	12	24	48	;	%	Coal
	3	6	12	24	958.3646099	660	660	660	660	12606	13866.6	15127.2	12	24	48	;	%	Coal
	3	6	12	24	940.3055196	660	660	660	660	12606	13866.6	15127.2	12	24	48	;	%	Coal
	3	6	12	24	813.7761389	660	660	660	660	12606	13866.6	15127.2	12	24	48	;	%	Coal
	3	6	12	24	900.000009	594	594	594	594	11345.4	12479.94	13614.48	12	24	48	;	%	Coal
	3	4	3	24	880.0000088	880	880	880	880	47398.56	52138.416	56878.272	3	6	12	;	%	LNG
	3	4	3	24	850.0000085	850	850	850	850	45782.7	50360.97	54939.24	3	6	12	;	%	LNG
	3	4	3	24	420.0000042	420	420	420	420	22622.04	24884.244	27146.448	3	6	12	;	%	LNG
	3	4	3	24	800.000008	800	800	800	800	43089.6	47398.56	51707.52	3	6	12	;	%	LNG
	3	6	12	24	700.000007	462	462	462	462	8824.2	9706.62	10589.04	12	24	48	;	%	Coal
	3	6	12	24	700.000007	462	462	462	462	8824.2	9706.62	10589.04	12	24	48	;	%	Coal
	3	4	3	24	550.0000055	550	550	550	550	29624.1	32586.51	35548.92	3	6	12	;	%	LNG
	3	4	3	-24	0	550	550	550	550	29624.1	32586.51	35548.92	3	6	12	;	%	LNG
	3	4	3	24	440.0000044	440	440	440	440	23699.28	26069.208	28439.136	3	6	12	;	%	LNG
	3	6	12	24	927.7312262	660	660	660	660	12606	13866.6	15127.2	12	24	48	;	%	Coal
	3	6	12	24	952.0077311	660	660	660	660	12606	13866.6	15127.2	12	24	48	;	%	Coal
	3	6	12	24	912.5602111	660	660	660	660	12606	13866.6	15127.2	12	24	48	;	%	Coal
	3	6	12	24	778.4483488	660	660	660	660	12606	13866.6	15127.2	12	24	48	;	%	Coal
	3	6	12	24	892.5578945	660	660	660	660	12606	13866.6	15127.2	12	24	48	;	%	Coal
	3	6	12	24	755.047933	594	594	594	594	11345.4	12479.94	13614.48	12	24	48	;	%	Coal
	3	4	3	24	880.0000088	880	880	880	880	47398.56	52138.416	56878.272	3	6	12	;	%	LNG
	3	4	3	24	880.0000088	880	880	880	880	47398.56	52138.416	56878.272	3	6	12	;	%	LNG
	3	4	3	24	770.0000077	770	770	770	770	41473.74	45621.114	49768.488	3	6	12	;	%	LNG
	3	4	3	24	440.0000044	440	440	440	440	23699.28	26069.208	28439.136	3	6	12	;	%	LNG
	3	6	12	24	678.1729302	726	726	726	726	13866.6	15253.26	16639.92	12	24	48	;	%	Coal
	3	6	12	24	822.8064882	660	660	660	660	12606	13866.6	15127.2	12	24	48	;	%	Coal
	3	6	12	24	743.432977	660	660	660	660	12606	13866.6	15127.2	12	24	48	;	%	Coal
	3	6	12	24	700.2011205	660	660	660	660	12606	13866.6	15127.2	12	24	48	;	%	Coal
	3	6	12	24	838.8867618	660	660	660	660	12606	13866.6	15127.2	12	24	48	;	%	Coal
	3	6	12	24	657.3693005	594	594	594	594	11345.4	12479.94	13614.48	12	24	48	;	%	Coal
	3	4	3	-24	0	550	550	550	550	29624.1	32586.51	35548.92	3	6	12	;	%	LNG
	3	6	12	24	200.000002	132	132	132	132	2521.2	2773.32	3025.44	12	24	48	;	%	Coal
	3	6	12	24	603.6201923	792	792	792	792	15127.2	16639.92	18152.64	12	24	48	;	%	Coal
	3	6	12	24	655.586362	660	660	660	660	12606	13866.6	15127.2	12	24	48	;	%	Coal
	3	4	3	24	400.000004	400	400	400	400	21544.8	23699.28	25853.76	3	6	12	;	%	LNG
	3	6	12	24	730.9578316	528	528	528	528	10084.8	11093.28	12101.76	12	24	48	;	%	Coal
	3	6	12	24	645.4298494	528	528	528	528	10084.8	11093.28	12101.76	12	24	48	;	%	Coal
	3	6	12	24	713.5324494	481.8	481.8	481.8	481.8	9202.38	10122.618	11042.856	12	24	48	;	%	Coal
	3	4	3	24	800.000008	800	800	800	800	43089.6	47398.56	51707.52	3	6	12	;	%	LNG
	3	8	12	-24	0	252	252	1400	1400	0	0	0	8	16	32	;	%	Nuclear
	3	8	12	24	1000.00001	180	180	1000	1000	0	0	0	8	16	32	;	%	Nuclear
	3	8	12	24	1000.00001	180	180	1000	1000	0	0	0	8	16	32	;	%	Nuclear
	3	8	12	24	1000.00001	180	180	1000	1000	0	0	0	8	16	32	;	%	Nuclear
	3	8	12	24	1000.00001	180	180	1000	1000	0	0	0	8	16	32	;	%	Nuclear
	3	8	12	24	950.0000095	171	171	950	950	0	0	0	8	16	32	;	%	Nuclear
	3	8	12	24	950.0000095	171	171	950	950	0	0	0	8	16	32	;	%	Nuclear
	3	6	12	24	867.5703432	726	726	726	726	13866.6	15253.26	16639.92	12	24	48	;	%	Coal
	3	6	12	24	906.0507406	660	660	660	660	12606	13866.6	15127.2	12	24	48	;	%	Coal
	3	6	12	24	827.0515172	660	660	660	660	12606	13866.6	15127.2	12	24	48	;	%	Coal
	3	6	12	24	821.0410289	660	660	660	660	12606	13866.6	15127.2	12	24	48	;	%	Coal
	3	6	12	24	825.0983042	594	594	594	594	11345.4	12479.94	13614.48	12	24	48	;	%	Coal
	3	4	3	24	770.0000077	770	770	770	770	41473.74	45621.114	49768.488	3	6	12	;	%	LNG
	3	4	3	24	770.0000077	770	770	770	770	41473.74	45621.114	49768.488	3	6	12	;	%	LNG
	3	6	12	24	900.0000089	594	594	594	594	11345.4	12479.94	13614.48	12	24	48	;	%	Coal
	3	4	3	24	770.0000077	770	770	770	770	41473.74	45621.114	49768.488	3	6	12	;	%	LNG
	3	8	12	24	1000.00001	180	180	1000	1000	0	0	0	8	16	32	;	%	Nuclear
	3	8	12	24	1000.00001	180	180	1000	1000	0	0	0	8	16	32	;	%	Nuclear
	3	8	12	-24	0	180	180	1000	1000	0	0	0	8	16	32	;	%	Nuclear
	3	8	12	-24	0	180	180	1000	1000	0	0	0	8	16	32	;	%	Nuclear
	3	8	12	24	950.0000095	171	171	950	950	0	0	0	8	16	32	;	%	Nuclear
	3	8	12	24	950.0000095	171	171	950	950	0	0	0	8	16	32	;	%	Nuclear
	3	4	3	24	110.0000011	110	110	110	110	5924.82	6517.302	7109.784	3	6	12	;	%	LNG
	3	6	12	24	500.000005	330	330	330	330	6303	6933.3	7563.6	12	24	48	;	%	Coal
	3	4	3	24	880.0000088	880	880	880	880	47398.56	52138.416	56878.272	3	6	12	;	%	LNG
	3	4	3	24	880.0000088	880	880	880	880	47398.56	52138.416	56878.272	3	6	12	;	%	LNG
	3	4	3	24	880.0000088	880	880	880	880	47398.56	52138.416	56878.272	3	6	12	;	%	LNG
	3	6	12	24	700.000007	462	462	462	462	8824.2	9706.62	10589.04	12	24	48	;	%	Coal
	3	4	3	24	400.000004	400	400	400	400	21544.8	23699.28	25853.76	3	6	12	;	%	LNG
	3	8	12	24	1400.000014	252	252	1400	1400	0	0	0	8	16	32	;	%	Nuclear
	3	8	12	24	1400.000014	252	252	1400	1400	0	0	0	8	16	32	;	%	Nuclear
	3	8	12	-24	0	180	180	1000	1000	0	0	0	8	16	32	;	%	Nuclear
	3	8	12	24	1000.00001	180	180	1000	1000	0	0	0	8	16	32	;	%	Nuclear
	3	8	12	24	700.000007	126	126	700	700	0	0	0	8	16	32	;	%	Nuclear
	3	8	12	24	700.000007	126	126	700	700	0	0	0	8	16	32	;	%	Nuclear
	3	8	12	-24	0	126	126	700	700	0	0	0	8	16	32	;	%	Nuclear
	3	4	3	24	440.0000044	440	440	440	440	23699.28	26069.208	28439.136	3	6	12	;	%	LNG
	3	4	3	24	770.0000077	770	770	770	770	41473.74	45621.114	49768.488	3	6	12	;	%	LNG
	3	4	3	24	550.0000055	550	550	550	550	29624.1	32586.51	35548.92	3	6	12	;	%	LNG
	3	4	3	-24	0	550	550	550	550	29624.1	32586.51	35548.92	3	6	12	;	%	LNG
	3	4	3	24	440.0000044	440	440	440	440	23699.28	26069.208	28439.136	3	6	12	;	%	LNG
	3	8	12	24	1000.00001	180	180	1000	1000	0	0	0	8	16	32	;	%	Nuclear
	3	8	12	24	1000.00001	180	180	1000	1000	0	0	0	8	16	32	;	%	Nuclear
	3	8	12	24	950.0000095	171	171	950	950	0	0	0	8	16	32	;	%	Nuclear
	3	8	12	24	950.0000095	171	171	950	950	0	0	0	8	16	32	;	%	Nuclear
	3	8	12	24	650.0000065	117	117	650	650	0	0	0	8	16	32	;	%	Nuclear
	3	4	3	24	990.0000099	990	990	990	990	53323.38	58655.718	63988.056	3	6	12	;	%	LNG
	3	4	3	24	990.0000099	990	990	990	990	53323.38	58655.718	63988.056	3	6	12	;	%	LNG
	3	6	12	24	808.5313635	792	792	792	792	15127.2	16639.92	18152.64	12	24	48	;	%	Coal
	3	6	12	24	796.1655771	660	660	660	660	12606	13866.6	15127.2	12	24	48	;	%	Coal
	3	6	12	24	769.8537916	660	660	660	660	12606	13866.6	15127.2	12	24	48	;	%	Coal
	3	6	12	24	770.7388973	594	594	594	594	11345.4	12479.94	13614.48	12	24	48	;	%	Coal
...